<?xml version="1.0" encoding="UTF-8"?>

<!-- generated on 2023-10-23 17:23:56.203571 by randomTrips.py v1_14_1+0000-f654d7b963e
<configuration>
    <additional-files value="Add/dqn.add.xml"/>
    <begin value="0"/>
    <end value="3600"/>
    <net-file value="Net/dqn.net.xml"/>
    <period value="3.0"/>
    <random value="True"/>
    <route-file value="Rou/dqnrandom.rou.xml"/>
    <trip-attributes value="departLane='best' type='type1' departSpeed='max' departPos='random'"/>
    <output-trip-file value="Rou/dqn.trip.xml"/>
</configuration>
-->

<!-- generated on 2023-10-23 17:23:56 by Eclipse SUMO duarouter Version 1.14.1
<configuration xmlns:xsi="http://www.w3.org/2001/XMLSchema-instance" xsi:noNamespaceSchemaLocation="http://sumo.dlr.de/xsd/duarouterConfiguration.xsd">

    <input>
        <net-file value="Net/dqn.net.xml"/>
        <additional-files value="Add/dqn.add.xml"/>
        <route-files value="Rou/dqn.trip.xml"/>
    </input>

    <output>
        <output-file value="Rou/dqnrandom.rou.xml"/>
        <alternatives-output value="NUL"/>
    </output>

    <time>
        <begin value="0"/>
        <end value="3600"/>
    </time>

    <report>
        <no-warnings value="true"/>
        <ignore-errors value="true"/>
        <no-step-log value="true"/>
    </report>

</configuration>
-->

<routes xmlns:xsi="http://www.w3.org/2001/XMLSchema-instance" xsi:noNamespaceSchemaLocation="http://sumo.dlr.de/xsd/routes_file.xsd">
    <vType id="truck" length="8.00" maxSpeed="5.00" probability="0.10" guiShape="truck" color="red" accel="1.0" decel="5.0" sigma="0.5">
        <param key="has.emission.device" value="false"/>
    </vType>
    <vehicle id="0" type="truck" depart="0.00" departLane="best" departPos="random" departSpeed="max">
        <route edges="-E3 -E0 E0 E3 -E5"/>
    </vehicle>
    <vType id="normal_car" length="5.00" maxSpeed="12.00" probability="0.50" guiShape="passenger/van" color="blue" accel="2.0" decel="5.0" sigma="0.5">
        <param key="has.emission.device" value="false"/>
    </vType>
    <vehicle id="1" type="normal_car" depart="3.00" departLane="best" departPos="random" departSpeed="max">
        <route edges="E0 E3 E8 E9 -E12"/>
    </vehicle>
    <vehicle id="2" type="normal_car" depart="6.00" departLane="best" departPos="random" departSpeed="max">
        <route edges="-E5 E7 E9 E14 -E13"/>
    </vehicle>
    <vehicle id="3" type="normal_car" depart="9.00" departLane="best" departPos="random" departSpeed="max">
        <route edges="E4 E5"/>
    </vehicle>
    <vehicle id="4" type="normal_car" depart="12.00" departLane="best" departPos="random" departSpeed="max">
        <route edges="E13 -E14 -E9 -E7 -E4"/>
    </vehicle>
    <vehicle id="5" type="normal_car" depart="15.00" departLane="best" departPos="random" departSpeed="max">
        <route edges="E7 -E8 -E3 -E0"/>
    </vehicle>
    <vehicle id="6" type="normal_car" depart="18.00" departLane="best" departPos="random" departSpeed="max">
        <route edges="-E9 -E7 E5 E8"/>
    </vehicle>
    <vehicle id="7" type="normal_car" depart="21.00" departLane="best" departPos="random" departSpeed="max">
        <route edges="-E8 -E5 E7 E9"/>
    </vehicle>
    <vehicle id="8" type="normal_car" depart="24.00" departLane="best" departPos="random" departSpeed="max">
        <route edges="-E3 -E0 E0 E3 E8 E9 -E12 -E11"/>
    </vehicle>
    <vehicle id="9" type="normal_car" depart="27.00" departLane="best" departPos="random" departSpeed="max">
        <route edges="-E14 -E9"/>
    </vehicle>
    <vehicle id="10" type="normal_car" depart="30.00" departLane="best" departPos="random" departSpeed="max">
        <route edges="-E2 E3 E8 E9 E15"/>
    </vehicle>
    <vehicle id="11" type="normal_car" depart="33.00" departLane="best" departPos="random" departSpeed="max">
        <route edges="-E2 E3 E8 E9"/>
    </vehicle>
    <vehicle id="12" type="normal_car" depart="36.00" departLane="best" departPos="random" departSpeed="max">
        <route edges="-E13 E8 E9 E14"/>
    </vehicle>
    <vehicle id="13" type="normal_car" depart="39.00" departLane="best" departPos="random" departSpeed="max">
        <route edges="-E8 -E5 -E4 E6"/>
    </vehicle>
    <vehicle id="14" type="normal_car" depart="42.00" departLane="best" departPos="random" departSpeed="max">
        <route edges="E5 E8 E9 E14 -E13 -E5"/>
    </vehicle>
    <vehicle id="15" type="normal_car" depart="45.00" departLane="best" departPos="random" departSpeed="max">
        <route edges="E6"/>
    </vehicle>
    <vehicle id="16" type="normal_car" depart="48.00" departLane="best" departPos="random" departSpeed="max">
        <route edges="E12 -E9 -E8 -E5 E7"/>
    </vehicle>
    <vehicle id="17" type="truck" depart="51.00" departLane="best" departPos="random" departSpeed="max">
        <route edges="-E8 -E5 E7 E9 E14"/>
    </vehicle>
    <vehicle id="18" type="normal_car" depart="54.00" departLane="best" departPos="random" departSpeed="max">
        <route edges="-E14 -E12 -E11"/>
    </vehicle>
    <vehicle id="19" type="normal_car" depart="57.00" departLane="best" departPos="random" departSpeed="max">
        <route edges="-E15 E14 -E13"/>
    </vehicle>
    <vehicle id="20" type="normal_car" depart="60.00" departLane="best" departPos="random" departSpeed="max">
        <route edges="E5 E8 E9"/>
    </vehicle>
    <vehicle id="21" type="normal_car" depart="63.00" departLane="best" departPos="random" departSpeed="max">
        <route edges="-E14 -E9 -E8 -E3 E2"/>
    </vehicle>
    <vehicle id="22" type="normal_car" depart="66.00" departLane="best" departPos="random" departSpeed="max">
        <route edges="E14 -E13 E8 -E7"/>
    </vehicle>
    <vehicle id="23" type="normal_car" depart="69.00" departLane="best" departPos="random" departSpeed="max">
        <route edges="-E2 E1 E11 E12"/>
    </vehicle>
    <vehicle id="24" type="truck" depart="72.00" departLane="best" departPos="random" departSpeed="max">
        <route edges="-E14 -E9 -E6 -E1"/>
    </vehicle>
    <vehicle id="25" type="normal_car" depart="75.00" departLane="best" departPos="random" departSpeed="max">
        <route edges="-E8 E13 -E14 E15"/>
    </vehicle>
    <vehicle id="26" type="truck" depart="78.00" departLane="best" departPos="random" departSpeed="max">
        <route edges="-E1 E3 E8 E9 E14"/>
    </vehicle>
    <vehicle id="27" type="normal_car" depart="81.00" departLane="best" departPos="random" departSpeed="max">
        <route edges="E6 -E8 E13"/>
    </vehicle>
    <vehicle id="28" type="normal_car" depart="84.00" departLane="best" departPos="random" departSpeed="max">
        <route edges="-E3 -E0 E0 E3 E13 -E14 -E9"/>
    </vehicle>
    <vehicle id="29" type="normal_car" depart="87.00" departLane="best" departPos="random" departSpeed="max">
        <route edges="-E8 -E5 E7 -E6"/>
    </vehicle>
    <vehicle id="30" type="normal_car" depart="90.00" departLane="best" departPos="random" departSpeed="max">
        <route edges="-E7 -E2 E3"/>
    </vehicle>
    <vehicle id="31" type="normal_car" depart="93.00" departLane="best" departPos="random" departSpeed="max">
        <route edges="E3 E8 -E6"/>
    </vehicle>
    <vehicle id="32" type="normal_car" depart="96.00" departLane="best" departPos="random" departSpeed="max">
        <route edges="E7 E9 E14 -E13 E8 -E7"/>
    </vehicle>
    <vehicle id="33" type="normal_car" depart="99.00" departLane="best" departPos="random" departSpeed="max">
        <route edges="-E8 -E5 E7 E9 E14 -E13"/>
    </vehicle>
    <vehicle id="34" type="truck" depart="102.00" departLane="best" departPos="random" departSpeed="max">
        <route edges="-E4 E6 E9"/>
    </vehicle>
    <vehicle id="35" type="normal_car" depart="105.00" departLane="best" departPos="random" departSpeed="max">
        <route edges="E5 -E3"/>
    </vehicle>
    <vehicle id="36" type="normal_car" depart="108.00" departLane="best" departPos="random" departSpeed="max">
        <route edges="-E9 -E8 E13 -E14 -E12 -E11"/>
    </vehicle>
    <vehicle id="37" type="normal_car" depart="111.00" departLane="best" departPos="random" departSpeed="max">
        <route edges="-E6 E4 E5 E13 -E14"/>
    </vehicle>
    <vehicle id="38" type="normal_car" depart="114.00" departLane="best" departPos="random" departSpeed="max">
        <route edges="E7 E9 E14 -E13 E8 -E7"/>
    </vehicle>
    <vehicle id="39" type="normal_car" depart="117.00" departLane="best" departPos="random" departSpeed="max">
        <route edges="E11 E12 -E9 -E6 -E1"/>
    </vehicle>
    <vehicle id="40" type="normal_car" depart="120.00" departLane="best" departPos="random" departSpeed="max">
        <route edges="E0 E1 E6"/>
    </vehicle>
    <vehicle id="41" type="truck" depart="123.00" departLane="best" departPos="random" departSpeed="max">
        <route edges="E7 -E8 -E5"/>
    </vehicle>
    <vehicle id="42" type="normal_car" depart="126.00" departLane="best" departPos="random" departSpeed="max">
        <route edges="E3 -E5 -E4"/>
    </vehicle>
    <vehicle id="43" type="normal_car" depart="129.00" departLane="best" departPos="random" departSpeed="max">
        <route edges="E3 E8 -E7 E5"/>
    </vehicle>
    <vehicle id="44" type="normal_car" depart="132.00" departLane="best" departPos="random" departSpeed="max">
        <route edges="-E12 -E11 E4 -E2 E1 E11 E12"/>
    </vehicle>
    <vehicle id="45" type="normal_car" depart="135.00" departLane="best" departPos="random" departSpeed="max">
        <route edges="-E8 -E3"/>
    </vehicle>
    <vehicle id="46" type="normal_car" depart="138.00" departLane="best" departPos="random" departSpeed="max">
        <route edges="E2 E7 E9"/>
    </vehicle>
    <vehicle id="47" type="normal_car" depart="141.00" departLane="best" departPos="random" departSpeed="max">
        <route edges="E11 E12 E14 -E13 E8 E9"/>
    </vehicle>
    <vehicle id="48" type="normal_car" depart="144.00" departLane="best" departPos="random" departSpeed="max">
        <route edges="E12 -E9 -E8 E13 -E14 -E12"/>
    </vehicle>
    <vehicle id="49" type="normal_car" depart="147.00" departLane="best" departPos="random" departSpeed="max">
        <route edges="-E11 E6 E9 E14 -E13"/>
    </vehicle>
    <vehicle id="50" type="normal_car" depart="150.00" departLane="best" departPos="random" departSpeed="max">
        <route edges="-E9 -E6"/>
    </vehicle>
    <vehicle id="51" type="normal_car" depart="153.00" departLane="best" departPos="random" departSpeed="max">
        <route edges="-E13"/>
    </vehicle>
    <vehicle id="52" type="normal_car" depart="156.00" departLane="best" departPos="random" departSpeed="max">
        <route edges="E0 E3 E8 E9 -E12 -E11"/>
    </vehicle>
    <vehicle id="53" type="truck" depart="159.00" departLane="best" departPos="random" departSpeed="max">
        <route edges="-E1 E2 -E4 E11 E12"/>
    </vehicle>
    <vehicle id="54" type="truck" depart="162.00" departLane="best" departPos="random" departSpeed="max">
        <route edges="-E13 E8 -E6 E4"/>
    </vehicle>
    <vehicle id="55" type="normal_car" depart="165.00" departLane="best" departPos="random" departSpeed="max">
        <route edges="E11"/>
    </vehicle>
    <vehicle id="56" type="normal_car" depart="168.00" departLane="best" departPos="random" departSpeed="max">
        <route edges="E3"/>
    </vehicle>
    <vehicle id="57" type="normal_car" depart="171.00" departLane="best" departPos="random" departSpeed="max">
        <route edges="E5 E13"/>
    </vehicle>
    <vehicle id="58" type="normal_car" depart="174.00" departLane="best" departPos="random" departSpeed="max">
        <route edges="E2 E7 -E6"/>
    </vehicle>
    <vehicle id="59" type="truck" depart="177.00" departLane="best" departPos="random" departSpeed="max">
        <route edges="-E8 -E5"/>
    </vehicle>
    <vehicle id="60" type="normal_car" depart="180.00" departLane="best" departPos="random" departSpeed="max">
        <route edges="-E1 E2 -E4 E6"/>
    </vehicle>
    <vehicle id="61" type="normal_car" depart="183.00" departLane="best" departPos="random" departSpeed="max">
        <route edges="-E5 E7 -E6"/>
    </vehicle>
    <vehicle id="62" type="normal_car" depart="186.00" departLane="best" departPos="random" departSpeed="max">
        <route edges="-E7 -E4 E6 -E8"/>
    </vehicle>
    <vehicle id="63" type="normal_car" depart="189.00" departLane="best" departPos="random" departSpeed="max">
        <route edges="-E8 -E5 -E4 E11 E12"/>
    </vehicle>
    <vehicle id="64" type="normal_car" depart="192.00" departLane="best" departPos="random" departSpeed="max">
        <route edges="E14 -E13"/>
    </vehicle>
    <vehicle id="65" type="normal_car" depart="195.00" departLane="best" departPos="random" departSpeed="max">
        <route edges="-E5 E7"/>
    </vehicle>
    <vehicle id="66" type="truck" depart="198.00" departLane="best" departPos="random" departSpeed="max">
        <route edges="E3 -E5 -E4 -E1"/>
    </vehicle>
    <vehicle id="67" type="normal_car" depart="201.00" departLane="best" departPos="random" departSpeed="max">
        <route edges="-E11 E4 E7"/>
    </vehicle>
    <vehicle id="68" type="normal_car" depart="204.00" departLane="best" departPos="random" departSpeed="max">
        <route edges="-E8 -E3 E2"/>
    </vehicle>
    <vehicle id="69" type="truck" depart="207.00" departLane="best" departPos="random" departSpeed="max">
        <route edges="E12 -E9 -E7"/>
    </vehicle>
    <vehicle id="70" type="normal_car" depart="210.00" departLane="best" departPos="random" departSpeed="max">
        <route edges="-E3 E2 E7 -E8"/>
    </vehicle>
    <vehicle id="71" type="normal_car" depart="213.00" departLane="best" departPos="random" departSpeed="max">
        <route edges="-E14 -E9 -E7 -E4"/>
    </vehicle>
    <vehicle id="72" type="normal_car" depart="216.00" departLane="best" departPos="random" departSpeed="max">
        <route edges="-E9 -E7 -E2"/>
    </vehicle>
    <vehicle id="73" type="normal_car" depart="219.00" departLane="best" departPos="random" departSpeed="max">
        <route edges="-E9"/>
    </vehicle>
    <vehicle id="74" type="normal_car" depart="222.00" departLane="best" departPos="random" departSpeed="max">
        <route edges="-E3 E1 E6"/>
    </vehicle>
    <vehicle id="75" type="normal_car" depart="225.00" departLane="best" departPos="random" departSpeed="max">
        <route edges="E2 E5 E8"/>
    </vehicle>
    <vehicle id="76" type="normal_car" depart="228.00" departLane="best" departPos="random" departSpeed="max">
        <route edges="-E1 E3 E13"/>
    </vehicle>
    <vehicle id="77" type="normal_car" depart="231.00" departLane="best" departPos="random" departSpeed="max">
        <route edges="E7 -E8 -E5"/>
    </vehicle>
    <vehicle id="78" type="normal_car" depart="234.00" departLane="best" departPos="random" departSpeed="max">
        <route edges="E3 E8 -E7"/>
    </vehicle>
    <vehicle id="79" type="normal_car" depart="237.00" departLane="best" departPos="random" departSpeed="max">
        <route edges="E12 -E9 -E7 E5"/>
    </vehicle>
    <vehicle id="80" type="normal_car" depart="240.00" departLane="best" departPos="random" departSpeed="max">
        <route edges="-E14 -E9 -E6 E11 E12"/>
    </vehicle>
    <vehicle id="81" type="normal_car" depart="243.00" departLane="best" departPos="random" departSpeed="max">
        <route edges="-E8 -E5"/>
    </vehicle>
    <vehicle id="82" type="normal_car" depart="246.00" departLane="best" departPos="random" departSpeed="max">
        <route edges="E6 -E8 -E5 E7"/>
    </vehicle>
    <vehicle id="83" type="normal_car" depart="249.00" departLane="best" departPos="random" departSpeed="max">
        <route edges="-E5 E7 E9 E14 -E13"/>
    </vehicle>
    <vehicle id="84" type="normal_car" depart="252.00" departLane="best" departPos="random" departSpeed="max">
        <route edges="-E1 E2 -E4 E6"/>
    </vehicle>
    <vehicle id="85" type="normal_car" depart="255.00" departLane="best" departPos="random" departSpeed="max">
        <route edges="-E1"/>
    </vehicle>
    <vehicle id="86" type="normal_car" depart="258.00" departLane="best" departPos="random" departSpeed="max">
        <route edges="-E6 E4 E7 E9 -E12 -E11"/>
    </vehicle>
    <vehicle id="87" type="normal_car" depart="261.00" departLane="best" departPos="random" departSpeed="max">
        <route edges="E4 -E2 -E0 E0 E2"/>
    </vehicle>
    <vehicle id="88" type="normal_car" depart="264.00" departLane="best" departPos="random" departSpeed="max">
        <route edges="-E3 -E0 E0 E3"/>
    </vehicle>
    <vehicle id="89" type="normal_car" depart="267.00" departLane="best" departPos="random" departSpeed="max">
        <route edges="E5 -E3 E1"/>
    </vehicle>
    <vehicle id="90" type="normal_car" depart="270.00" departLane="best" departPos="random" departSpeed="max">
        <route edges="-E14 -E9 -E8 -E5"/>
    </vehicle>
    <vehicle id="91" type="truck" depart="273.00" departLane="best" departPos="random" departSpeed="max">
        <route edges="-E11 -E1 E2 -E4"/>
    </vehicle>
    <vehicle id="92" type="normal_car" depart="276.00" departLane="best" departPos="random" departSpeed="max">
        <route edges="E5 E8 E9 E14"/>
    </vehicle>
    <vehicle id="93" type="normal_car" depart="279.00" departLane="best" departPos="random" departSpeed="max">
        <route edges="-E6 -E1 E2"/>
    </vehicle>
    <vehicle id="94" type="normal_car" depart="282.00" departLane="best" departPos="random" departSpeed="max">
        <route edges="E1 E6"/>
    </vehicle>
    <vehicle id="95" type="truck" depart="285.00" departLane="best" departPos="random" departSpeed="max">
        <route edges="-E2 E3"/>
    </vehicle>
    <vehicle id="96" type="normal_car" depart="288.00" departLane="best" departPos="random" departSpeed="max">
        <route edges="-E12 -E11 -E1 E3"/>
    </vehicle>
    <vehicle id="97" type="truck" depart="291.00" departLane="best" departPos="random" departSpeed="max">
        <route edges="E1 E4 E7"/>
    </vehicle>
    <vehicle id="98" type="normal_car" depart="294.00" departLane="best" departPos="random" departSpeed="max">
        <route edges="E0 E1 E4"/>
    </vehicle>
    <vehicle id="99" type="normal_car" depart="297.00" departLane="best" departPos="random" departSpeed="max">
        <route edges="E9 -E12 -E11 E4 E5"/>
    </vehicle>
    <vehicle id="100" type="normal_car" depart="300.00" departLane="best" departPos="random" departSpeed="max">
        <route edges="E9 E14 -E13 -E5 -E4 E11 E12"/>
    </vehicle>
    <vehicle id="101" type="normal_car" depart="303.00" departLane="best" departPos="random" departSpeed="max">
        <route edges="E9 E14 -E13 -E3"/>
    </vehicle>
    <vehicle id="102" type="truck" depart="306.00" departLane="best" departPos="random" departSpeed="max">
        <route edges="E8 E9"/>
    </vehicle>
    <vehicle id="103" type="normal_car" depart="309.00" departLane="best" departPos="random" departSpeed="max">
        <route edges="E13 -E14 -E9 -E6 E11 E12"/>
    </vehicle>
    <vehicle id="104" type="truck" depart="312.00" departLane="best" departPos="random" departSpeed="max">
        <route edges="E6 E9 E15"/>
    </vehicle>
    <vehicle id="105" type="normal_car" depart="315.00" departLane="best" departPos="random" departSpeed="max">
        <route edges="E0 E3 E8 E9 E14 -E13"/>
    </vehicle>
    <vehicle id="106" type="normal_car" depart="318.00" departLane="best" departPos="random" departSpeed="max">
        <route edges="E7 -E8 -E3 E2"/>
    </vehicle>
    <vehicle id="107" type="normal_car" depart="321.00" departLane="best" departPos="random" departSpeed="max">
        <route edges="E7 -E8 E13"/>
    </vehicle>
    <vehicle id="108" type="normal_car" depart="324.00" departLane="best" departPos="random" departSpeed="max">
        <route edges="-E12 -E11 -E1 E2"/>
    </vehicle>
    <vehicle id="109" type="normal_car" depart="327.00" departLane="best" departPos="random" departSpeed="max">
        <route edges="-E3 -E0 E0 E3"/>
    </vehicle>
    <vehicle id="110" type="normal_car" depart="330.00" departLane="best" departPos="random" departSpeed="max">
        <route edges="E5 E8 -E6"/>
    </vehicle>
    <vehicle id="111" type="normal_car" depart="333.00" departLane="best" departPos="random" departSpeed="max">
        <route edges="-E8 -E3 -E0"/>
    </vehicle>
    <vehicle id="112" type="normal_car" depart="336.00" departLane="best" departPos="random" departSpeed="max">
        <route edges="E7 -E8"/>
    </vehicle>
    <vehicle id="113" type="normal_car" depart="339.00" departLane="best" departPos="random" departSpeed="max">
        <route edges="-E8 E13 -E14 E15"/>
    </vehicle>
    <vehicle id="114" type="normal_car" depart="342.00" departLane="best" departPos="random" departSpeed="max">
        <route edges="-E5 E7 E9"/>
    </vehicle>
    <vehicle id="115" type="normal_car" depart="345.00" departLane="best" departPos="random" departSpeed="max">
        <route edges="E9 -E12 -E11 E4"/>
    </vehicle>
    <vehicle id="116" type="normal_car" depart="348.00" departLane="best" departPos="random" departSpeed="max">
        <route edges="E11 E12 E14 -E13 E8 E9 -E12"/>
    </vehicle>
    <vehicle id="117" type="normal_car" depart="351.00" departLane="best" departPos="random" departSpeed="max">
        <route edges="E13 -E14 -E12"/>
    </vehicle>
    <vehicle id="118" type="truck" depart="354.00" departLane="best" departPos="random" departSpeed="max">
        <route edges="E0 E2 E5"/>
    </vehicle>
    <vehicle id="119" type="normal_car" depart="357.00" departLane="best" departPos="random" departSpeed="max">
        <route edges="E8 -E6 E4 E7"/>
    </vehicle>
    <vehicle id="120" type="normal_car" depart="360.00" departLane="best" departPos="random" departSpeed="max">
        <route edges="-E9 -E8 E13 -E14 -E12"/>
    </vehicle>
    <vehicle id="121" type="normal_car" depart="363.00" departLane="best" departPos="random" departSpeed="max">
        <route edges="-E1 E3 E8 E9 -E12 -E11"/>
    </vehicle>
    <vehicle id="122" type="normal_car" depart="366.00" departLane="best" departPos="random" departSpeed="max">
        <route edges="-E12 -E11 E4 E5 -E3"/>
    </vehicle>
    <vehicle id="123" type="normal_car" depart="369.00" departLane="best" departPos="random" departSpeed="max">
        <route edges="E13 -E14 -E9 -E8 -E3"/>
    </vehicle>
    <vehicle id="124" type="truck" depart="372.00" departLane="best" departPos="random" departSpeed="max">
        <route edges="-E2 E1 E4 E5"/>
    </vehicle>
    <vehicle id="125" type="truck" depart="375.00" departLane="best" departPos="random" departSpeed="max">
        <route edges="E12 -E9 -E8 -E5 E7"/>
    </vehicle>
    <vehicle id="126" type="normal_car" depart="378.00" departLane="best" departPos="random" departSpeed="max">
        <route edges="E7 E9 E14 -E13 E8"/>
    </vehicle>
    <vehicle id="127" type="truck" depart="381.00" departLane="best" departPos="random" departSpeed="max">
        <route edges="E2 -E4 -E1 E3"/>
    </vehicle>
    <vehicle id="128" type="normal_car" depart="384.00" departLane="best" departPos="random" departSpeed="max">
        <route edges="-E7 -E4 E6"/>
    </vehicle>
    <vehicle id="129" type="normal_car" depart="387.00" departLane="best" departPos="random" departSpeed="max">
        <route edges="-E14 -E9"/>
    </vehicle>
    <vehicle id="130" type="normal_car" depart="390.00" departLane="best" departPos="random" departSpeed="max">
        <route edges="-E8 -E5 -E4 E6"/>
    </vehicle>
    <vehicle id="131" type="normal_car" depart="393.00" departLane="best" departPos="random" departSpeed="max">
        <route edges="E9 E14 -E13 -E3"/>
    </vehicle>
    <vehicle id="132" type="normal_car" depart="396.00" departLane="best" departPos="random" departSpeed="max">
        <route edges="E1 E6 -E7 -E4"/>
    </vehicle>
    <vehicle id="133" type="normal_car" depart="399.00" departLane="best" departPos="random" departSpeed="max">
        <route edges="-E3 E2 E7 -E8"/>
    </vehicle>
    <vehicle id="134" type="normal_car" depart="402.00" departLane="best" departPos="random" departSpeed="max">
        <route edges="E9 E14 -E13 E8 -E7"/>
    </vehicle>
    <vehicle id="135" type="normal_car" depart="405.00" departLane="best" departPos="random" departSpeed="max">
        <route edges="-E7 -E2 E3"/>
    </vehicle>
    <vehicle id="136" type="normal_car" depart="408.00" departLane="best" departPos="random" departSpeed="max">
        <route edges="-E13 -E5"/>
    </vehicle>
    <vehicle id="137" type="normal_car" depart="411.00" departLane="best" departPos="random" departSpeed="max">
        <route edges="E12 -E9 -E8 E13"/>
    </vehicle>
    <vehicle id="138" type="truck" depart="414.00" departLane="best" departPos="random" departSpeed="max">
        <route edges="-E1 E3 E13 -E14 -E9"/>
    </vehicle>
    <vehicle id="139" type="normal_car" depart="417.00" departLane="best" departPos="random" departSpeed="max">
        <route edges="-E13 E8 -E6"/>
    </vehicle>
    <vehicle id="140" type="normal_car" depart="420.00" departLane="best" departPos="random" departSpeed="max">
        <route edges="-E8 E13 -E14 -E12 -E11"/>
    </vehicle>
    <vehicle id="141" type="truck" depart="423.00" departLane="best" departPos="random" departSpeed="max">
        <route edges="E5 E8 -E7"/>
    </vehicle>
    <vehicle id="142" type="normal_car" depart="426.00" departLane="best" departPos="random" departSpeed="max">
        <route edges="-E13 -E3 E2"/>
    </vehicle>
    <vehicle id="143" type="normal_car" depart="429.00" departLane="best" departPos="random" departSpeed="max">
        <route edges="E7 -E6 -E1"/>
    </vehicle>
    <vehicle id="144" type="truck" depart="432.00" departLane="best" departPos="random" departSpeed="max">
        <route edges="E0 E1 E6"/>
    </vehicle>
    <vehicle id="145" type="truck" depart="435.00" departLane="best" departPos="random" departSpeed="max">
        <route edges="-E8 -E5 E7 -E6"/>
    </vehicle>
    <vehicle id="146" type="normal_car" depart="438.00" departLane="best" departPos="random" departSpeed="max">
        <route edges="-E7 E5 E8"/>
    </vehicle>
    <vehicle id="147" type="truck" depart="441.00" departLane="best" departPos="random" departSpeed="max">
        <route edges="-E4 -E1 E3 -E5 -E2"/>
    </vehicle>
    <vehicle id="148" type="normal_car" depart="444.00" departLane="best" departPos="random" departSpeed="max">
        <route edges="-E14 -E9 -E8 -E5 E7 E9 E14"/>
    </vehicle>
    <vehicle id="149" type="normal_car" depart="447.00" departLane="best" departPos="random" departSpeed="max">
        <route edges="E14 -E13 -E5 -E4 E6"/>
    </vehicle>
    <vehicle id="150" type="normal_car" depart="450.00" departLane="best" departPos="random" departSpeed="max">
        <route edges="-E12 -E11 E4 E7 -E6"/>
    </vehicle>
    <vehicle id="151" type="normal_car" depart="453.00" departLane="best" departPos="random" departSpeed="max">
        <route edges="-E15 -E12 -E11"/>
    </vehicle>
    <vehicle id="152" type="normal_car" depart="456.00" departLane="best" departPos="random" departSpeed="max">
        <route edges="E2 E7 E9 E14"/>
    </vehicle>
    <vehicle id="153" type="normal_car" depart="459.00" departLane="best" departPos="random" departSpeed="max">
        <route edges="-E15 E14 -E13 E8 E9"/>
    </vehicle>
    <vehicle id="154" type="normal_car" depart="462.00" departLane="best" departPos="random" departSpeed="max">
        <route edges="E11 E12 -E9 -E8 -E5 E7"/>
    </vehicle>
    <vehicle id="155" type="truck" depart="465.00" departLane="best" departPos="random" departSpeed="max">
        <route edges="E3 E8 -E7 E5"/>
    </vehicle>
    <vehicle id="156" type="normal_car" depart="468.00" departLane="best" departPos="random" departSpeed="max">
        <route edges="-E14 -E9 -E6 E4"/>
    </vehicle>
    <vehicle id="157" type="normal_car" depart="471.00" departLane="best" departPos="random" departSpeed="max">
        <route edges="-E13 -E3 E2"/>
    </vehicle>
    <vehicle id="158" type="truck" depart="474.00" departLane="best" departPos="random" departSpeed="max">
        <route edges="-E5 -E2 E3 E13 -E14"/>
    </vehicle>
    <vehicle id="159" type="normal_car" depart="477.00" departLane="best" departPos="random" departSpeed="max">
        <route edges="E6 -E8 E13 -E14"/>
    </vehicle>
    <vehicle id="160" type="normal_car" depart="480.00" departLane="best" departPos="random" departSpeed="max">
        <route edges="-E3 E2"/>
    </vehicle>
    <vehicle id="161" type="truck" depart="483.00" departLane="best" departPos="random" departSpeed="max">
        <route edges="E13 -E14 -E9 -E7"/>
    </vehicle>
    <vehicle id="162" type="normal_car" depart="486.00" departLane="best" departPos="random" departSpeed="max">
        <route edges="E8 -E6 E11 E12"/>
    </vehicle>
    <vehicle id="163" type="normal_car" depart="489.00" departLane="best" departPos="random" departSpeed="max">
        <route edges="E14 -E13 -E3 -E0"/>
    </vehicle>
    <vehicle id="164" type="truck" depart="492.00" departLane="best" departPos="random" departSpeed="max">
        <route edges="-E1 E3 E8 E9 E14 -E13"/>
    </vehicle>
    <vehicle id="165" type="normal_car" depart="495.00" departLane="best" departPos="random" departSpeed="max">
        <route edges="E13 -E14 -E9 -E8 -E3"/>
    </vehicle>
    <vehicle id="166" type="truck" depart="498.00" departLane="best" departPos="random" departSpeed="max">
        <route edges="E4 E5 E13"/>
    </vehicle>
    <vehicle id="167" type="normal_car" depart="501.00" departLane="best" departPos="random" departSpeed="max">
        <route edges="E9 E14 -E13 -E5 -E2 E3"/>
    </vehicle>
    <vehicle id="168" type="normal_car" depart="504.00" departLane="best" departPos="random" departSpeed="max">
        <route edges="-E9 -E7 -E4"/>
    </vehicle>
    <vehicle id="169" type="truck" depart="507.00" departLane="best" departPos="random" departSpeed="max">
        <route edges="E6 -E8 E13 -E14 -E9"/>
    </vehicle>