<configuration>
    <input>
        <net-file value="./Net/dqn.net.xml"/>
        <additional-files value="./Add/dqn.det.xml"/>
        <route-files value='./Rou/dqnrandom.rou.xml'/>
        <gui-settings-file value="rl1.settings.xml"/>
    </input>
    
    <time>
        <begin value="0"/>
        <end value="10000"/>
    </time>
</configuration>

 