<additional>
        <laneAreaDetector id="-D0" lane="-E0_0" pos="0.0" length="100.00" freq ="1" file="dqn_detfile.out"/>
        <laneAreaDetector id="-D1" lane="-E1_0" pos="0.0" length="228.84" freq ="1" file="dqn_detfile.out"/>
        <laneAreaDetector id="-D11" lane="-E11_0" pos="0.0" length="388.26" freq ="1" file="dqn_detfile.out"/>
        <laneAreaDetector id="-D12" lane="-E12_0" pos="0.0" length="99.76" freq ="1" file="dqn_detfile.out"/>
        <laneAreaDetector id="-D13" lane="-E13_0" pos="0.0" length="204.88" freq ="1" file="dqn_detfile.out"/>
        <laneAreaDetector id="-D14" lane="-E14_0" pos="0.0" length="100.06" freq ="1" file="dqn_detfile.out"/>
        <laneAreaDetector id="-D15" lane="-E15_0" pos="0.0" length="123.14" freq ="1" file="dqn_detfile.out"/>
        <laneAreaDetector id="-D2" lane="-E2_0" pos="0.0" length="223.61" freq ="1" file="dqn_detfile.out"/>
        <laneAreaDetector id="-D3" lane="-E3_0" pos="0.0" length="300.00" freq ="1" file="dqn_detfile.out"/>
        <laneAreaDetector id="-D4" lane="-E4_0" pos="0.0" length="130.46" freq ="1" file="dqn_detfile.out"/>
        <laneAreaDetector id="-D5" lane="-E5_0" pos="0.0" length="141.42" freq ="1" file="dqn_detfile.out"/>
        <laneAreaDetector id="-D6" lane="-E6_0" pos="0.0" length="305.22" freq ="1" file="dqn_detfile.out"/>
        <laneAreaDetector id="-D7" lane="-E7_0" pos="0.0" length="200.00" freq ="1" file="dqn_detfile.out"/>
        <laneAreaDetector id="-D8" lane="-E8_0" pos="0.0" length="141.42" freq ="1" file="dqn_detfile.out"/>
        <laneAreaDetector id="-D9" lane="-E9_0" pos="0.0" length="100.00" freq ="1" file="dqn_detfile.out"/>
        <laneAreaDetector id="D0" lane="E0_0" pos="0.0" length="100.00" freq ="1" file="dqn_detfile.out"/>
        <laneAreaDetector id="D1" lane="E1_0" pos="0.0" length="228.84" freq ="1" file="dqn_detfile.out"/>
        <laneAreaDetector id="D11" lane="E11_0" pos="0.0" length="388.26" freq ="1" file="dqn_detfile.out"/>
        <laneAreaDetector id="D12" lane="E12_0" pos="0.0" length="99.76" freq ="1" file="dqn_detfile.out"/>
        <laneAreaDetector id="D13" lane="E13_0" pos="0.0" length="204.88" freq ="1" file="dqn_detfile.out"/>
        <laneAreaDetector id="D14" lane="E14_0" pos="0.0" length="100.06" freq ="1" file="dqn_detfile.out"/>
        <laneAreaDetector id="D15" lane="E15_0" pos="0.0" length="123.14" freq ="1" file="dqn_detfile.out"/>
        <laneAreaDetector id="D2" lane="E2_0" pos="0.0" length="223.61" freq ="1" file="dqn_detfile.out"/>
        <laneAreaDetector id="D3" lane="E3_0" pos="0.0" length="100.00" freq ="1" file="dqn_detfile.out"/>
        <laneAreaDetector id="D4" lane="E4_0" pos="0.0" length="130.46" freq ="1" file="dqn_detfile.out"/>
        <laneAreaDetector id="D5" lane="E5_0" pos="0.0" length="141.42" freq ="1" file="dqn_detfile.out"/>
        <laneAreaDetector id="D6" lane="E6_0" pos="0.0" length="305.22" freq ="1" file="dqn_detfile.out"/>
        <laneAreaDetector id="D7" lane="E7_0" pos="0.0" length="200.00" freq ="1" file="dqn_detfile.out"/>
        <laneAreaDetector id="D8" lane="E8_0" pos="0.0" length="141.42" freq ="1" file="dqn_detfile.out"/>
        <laneAreaDetector id="D9" lane="E9_0" pos="0.0" length="100.00" freq ="1" file="dqn_detfile.out"/>
</additional>
